     489
 i =        0, time =        0.000, E =     -2806.0013281289
  O        13.4294386748        4.7181820815       22.2776440102
  H        13.5985689887        4.9116796354       21.3209252710
  H        12.6366916438        5.2837427846       22.4399393596
  O         6.7336362970        1.3842410092       24.7438498937
  H         5.7909472497        1.5371523045       24.5899018285
  H         6.9961309355        0.4451060342       25.0598645871
  O         3.6658782393        9.4996829721        5.2757327049
  H         3.7145992773        9.4235086883        4.3344626494
  H         4.0563786621       10.3836358146        5.6041841865
  O        10.2879010725        6.5264201489        6.2653034996
  H        11.0411935422        5.8754342188        6.2755630525
  H        10.1213187472        6.8093369303        5.3369780137
  O         0.4711781515        1.2005190356       21.5304415254
  H        -0.5477238642        1.3510821711       21.4893889366
  H         0.8197517380        1.6992946104       22.2907555891
  O         5.6903185090       10.2069083212       11.7260756019
  H         5.9626653998        9.8975639820       10.8396884489
  H         6.4869225775       10.1134611208       12.2797670276
  O         6.6005796867        1.2733705037        6.3946033610
  H         6.4508960608        1.9144463914        5.6561473259
  H         7.3048974932        0.7303844049        5.9946737082
  O        14.7252390010        1.9397654430       11.9447760524
  H        15.2439621546        1.1512729888       11.5040174852
  H        13.9708319869        1.9020800548       11.2979414870
  O         7.6434241018        7.3917389109       10.9851264311
  H         7.6803592239        7.8565190866       11.8396527146
  H         6.6676778803        7.1038322295       10.9405519478
  O         4.8817926864        7.3676268034        5.9365941936
  H         4.4157617810        6.4623404970        5.9507751209
  H         4.2809566532        8.0193703314        6.1677567193
  O        11.3974987943        6.6800941357       22.9683269802
  H        10.5456262197        6.7639034899       23.4668711352
  H        11.3133873420        7.3152488771       22.2087601173
  O        12.8411379126        2.3635377866       10.1389395750
  H        13.0574112210        3.1928420166        9.6499733575
  H        11.8754057216        2.3538931202       10.4007442579
  O         3.5975075112        8.4036369417       24.2835184674
  H         3.4077479093        8.4108508714       23.3417085573
  H         2.7023416103        8.1386587790       24.5896792518
  O         2.7913857357       10.1925393980       11.8959633000
  H         2.2073893282       10.4311532158       12.6645753855
  H         3.6902139584       10.2676895320       12.2756675416
  O         5.0325647923        6.5456866051       10.4552959408
  H         5.4349529393        6.7191681330        9.5716661670
  H         4.2724068618        7.1052348830       10.6265796342
  O         1.6934404733        2.7770121591       23.7292521346
  H         1.5201443559        3.7766763757       23.7416128338
  H         0.7521791962        2.5615441417       24.0085166333
  O         8.3881832482        3.2990627605       23.8654955811
  H         7.8148966523        3.3875532396       23.0957599511
  H         7.9521997645        2.5380342198       24.3063027578
  O         0.3494778990        9.7315945847        5.8909703779
  H        -0.0674840473        9.5100568516        6.7677784000
  H         1.3309235173        9.8178585809        6.1173141522
  O         8.1133298680        4.7918254168        7.1123693054
  H         8.8649789316        5.2252531460        6.7749653141
  H         7.7340333319        4.6137408273        6.1971940951
  O         1.6481161824        4.0167223278       10.8734697885
  H         1.0053647716        4.4375355969       10.2780392362
  H         1.0127005478        3.2670869070       11.2658808086
  O        14.3696528693        8.5487707590        3.3546473837
  H        14.6020661331        8.6909272879        4.3013693881
  H        14.9428177982        9.2928584945        2.9641766485
  O         2.6178571715       11.2949622186       15.0489707431
  H         2.0795584076       11.3125491867       15.9492148252
  H         2.7946651392       12.3079397792       14.8136290404
  O        11.5729136090        7.8127243090       20.4739352416
  H        11.2221033783        8.6898297638       20.6281858186
  H        11.0632686355        7.4458357070       19.7353153779
  O         5.6326679934       10.5972749437        2.7497304644
  H         6.2360386197       10.8530750472        3.4903687132
  H         5.5574404882        9.6566414382        2.8477646741
  O         8.1147458816        4.4312607126       15.3619535250
  H         8.1204867579        3.4847771346       15.0774315915
  H         7.7129263209        4.4533376474       16.2245907531
  O         0.9480077970       12.1751072561       10.5878454634
  H         1.6324902052       11.6510672420       11.0422508915
  H         1.3919646886       12.3217363229        9.7534840799
  O         0.1451662377        5.6961656375        3.7860499940
  H         0.1475529072        6.6298232042        3.3677227400
  H         0.4670132942        5.8272996015        4.7577851907
  O        10.4694820234       11.7842587147       24.4972936824
  H        10.6860035329       11.1138315878       23.7914229820
  H         9.6993757494       11.3394242602       24.9478504396
  O        10.9532153389        8.6730206866       13.6940560106
  H        10.8374826367        8.3094380188       12.8032892216
  H        10.0633573477        8.8085549299       14.0211923357
  O         2.4555823784       12.1300377906       21.4782101706
  H         2.4481412045       11.8196075939       22.3982505279
  H         1.6386275165       12.6539243319       21.4084624006
  O         7.1996251406        2.1823671373       21.3799440460
  H         6.3696530895        1.7129407129       21.2394918444
  H         7.8618355069        1.4882777663       21.6314394190
  O         0.6054536044       10.1048192479       13.7840845720
  H        -0.3023096766       10.4093204321       13.9694264932
  H         1.1914031175       10.3527084300       14.5374832024
  O        14.5169646110        4.6310860691       19.4090549513
  H        14.6980754314        5.5626127501       19.7112161018
  H        14.0765492185        4.8310694526       18.5149208271
  O         5.2322543753        8.2939925791       16.0457826893
  H         4.3744017639        7.8025311442       15.9390354494
  H         5.0670527268        9.2493521450       15.9451694553
  O         4.7655879159        0.6377133425       21.8846417329
  H         3.8763709193        0.1772139198       21.6500502035
  H         4.6530811776        0.9819528691       22.7986318574
  O         2.3228523689        2.6433312337       16.5510753695
  H         3.1045038112        3.1008618200       16.9230237504
  H         2.0175237187        2.2077326223       17.3660885266
  O         8.7640411637        8.1298245356       18.8673478803
  H         9.2977058268        7.3858876552       18.5049003529
  H         8.6999077368        7.9690745885       19.8437751896
  O        13.1539091763        9.4587552671       24.0839012638
  H        12.6693067123        9.8493090266       23.3086410383
  H        12.4688175770        8.8009977773       24.5186403004
  O        14.7547141059        9.1998604951       17.2622843167
  H        14.5411642575        8.6093660893       18.0616220292
  H        15.1026100050        8.5652416802       16.6597252882
  O        14.1201031934        1.0142361316        3.3951819495
  H        13.7435244923        0.6206368721        2.5580988866
  H        14.2392036287        0.2892761822        4.1727656489
  O         3.5635957643        2.4323753503        3.1029903872
  H         3.5147768116        1.4256741880        2.9965301960
  H         2.6394406358        2.6680215089        3.3607131598
  O         8.2708168916        1.9964602615       13.8553665570
  H         7.4143648378        1.6215685682       14.1448727121
  H         8.7941793204        1.1525654709       14.0524963670
  O        10.5016578431        6.2850138491       18.3858169913
  H        10.8219453146        5.3267660535       18.5022327691
  H        10.7674726599        6.4607019842       17.4419532979
  O        10.0335198365        5.8686547541       14.0091086921
  H         9.5862943825        5.0778679665       14.4368988971
  H         9.8971988178        5.7123069454       13.0923157016
  O         9.6897249299        9.8895528713       10.9636872042
  H        10.3078978635        9.1132685943       10.9799939706
  H         8.8314444206        9.6729461489       10.4784394528
  O        13.0081140563        1.9192468802       16.9247181541
  H        12.8722384527        1.1731041433       16.3204112328
  H        13.9614418000        1.9074512197       17.1731873809
  O         2.4134078139        3.4965201569       19.8853884065
  H         2.0634015470        2.7429269965       20.4321140479
  H         1.6462431861        3.8661878034       19.4016625509
  O         5.0874240814       10.8729612811       16.0573780083
  H         4.9606662493       10.7285236178       17.0084078367
  H         4.1702207168       11.1260183120       15.7105810268
  O         1.4443356851       11.3278451387       17.5042665907
  H         0.7006148849       10.7183370359       17.4028518908
  H         1.9399303522       10.7553023131       18.1189167658
  O        10.6580414748       12.5815043097       10.4330780494
  H        10.2349684523       11.6840307770       10.7437081917
  H        10.1610394073       13.2088336045       10.9806621012
  O         5.0661525473        7.8643466787        3.0886406144
  H         4.4600983242        7.1288241766        2.8706737236
  H         5.2250465632        7.7633014936        4.0846341783
  O        13.8433061324        6.9100527093       10.3406892949
  H        14.1449902248        7.8034438538       10.0393840095
  H        14.4948729221        6.6024194361       11.0599522207
  O         3.8141314105        4.2944797385        9.1535208273
  H         4.2552061593        5.0367869864        9.6237706281
  H         3.0455390822        4.0868369364        9.7792785397
  O         3.2518852169        0.9203373553       14.2064409718
  H         4.2364566647        0.8746176027       14.1368087198
  H         2.9599922457        1.6268399436       14.8929916402
  O         1.1640886678        7.3669983917       14.2963965743
  H         1.1549196444        8.3466876344       14.2192001806
  H         2.0582394368        7.1665448440       14.6344095490
  O         3.9697467868        4.8452920215        6.3651194907
  H         3.0467765636        5.1470247846        6.2193892780
  H         3.9670434690        4.6835254006        7.3557418221
  O         3.1453992717        5.7108097770       21.8584066498
  H         3.2236516413        4.8748984494       21.3769811086
  H         3.9109576492        5.5870008978       22.4673454590
  O         8.9165094856       10.2361956881        6.9323790516
  H         9.6272403446        9.7935701201        7.4692590159
  H         8.9467248795       11.1637979112        7.3363622854
  O        11.0384039911        7.3760489785       10.8826671475
  H        12.1049487101        7.2037619911       11.0016705626
  H        10.6658349527        6.4388419647       10.9913443003
  O         6.2214008318        7.6425535307       24.1954114688
  H         5.5659992701        7.7703799463       24.8987119586
  H         6.0282597118        8.2531103945       23.4619193514
  O        12.2894717011       10.3102653169        3.6146632254
  H        13.0341285198        9.6591415044        3.8570234549
  H        12.0125108361       10.6790054182        4.5272034249
  O         9.3242736023        5.1807552970       11.3165673156
  H         9.0680258556        4.2798085646       11.0170856036
  H         8.6480339911        5.7934597464       10.9949703170
  O        12.5003894886       10.7669231159       13.4397661709
  H        11.9534613484        9.9480070179       13.6421278623
  H        12.5996690795       10.9726099511       12.4756879318
  O         9.8186113169       12.1868192247       14.3755659540
  H        10.6877150295       11.7658767025       14.1458613415
  H         9.1928539922       11.5589938632       14.0191024588
  O         1.1578891018        5.5175462227       23.6908046517
  H         1.9280420917        5.5727534868       22.9896563368
  H         0.3226414881        5.1931166648       23.2595990068
  O         1.0719262449        3.0211701105        3.8169142632
  H         0.8069612849        3.9067630279        3.4924778209
  H         0.4640521608        2.2615470002        3.4736427234
  O         9.1899073545        0.9248481574        4.8531753562
  H         9.3494812806        0.2915102120        4.1113370837
  H         8.7507303209        1.7362520601        4.5142018312
  O         5.5145458317        5.1008146953       13.8043349304
  H         6.2411670922        4.6888071686       14.3010792516
  H         5.4236928442        4.4681514855       13.0698515388
  O         8.5493701865        6.4325336704       23.7444447131
  H         8.7062705605        5.5709301912       24.1685871383
  H         7.7698319730        6.8980527216       24.1553294112
  O         1.6018335457        8.7633925995       21.5260542799
  H         1.1395137350        8.6920019226       22.4517123632
  H         1.2219097806        9.5819398212       21.1118928688
  O         7.7927043201       10.8478501308       24.2693548323
  H         7.5457632492       11.2139546354       23.4305232533
  H         7.0344921427       10.3594728948       24.5556060716
  O         8.8969980651       12.5120846370       22.3706416726
  H         9.5692865098       12.6336064652       21.6392641247
  H         9.5373054934       12.5840403798       23.2165918759
  O         5.0044687103       12.5157645225       10.5103512263
  H         5.2755010859       11.5659830758       10.9031308282
  H         4.6020210931       13.0743898914       11.1857821812
  O         5.8671065832        0.6752992619       14.8277695612
  H         6.0001731488       -0.2527217611       14.9873273744
  H         5.8196998692        0.9602093160       15.7872864475
  O         8.9179122189        0.1053925122        7.8613666117
  H         9.7603751294        0.1570438724        8.3917378199
  H         8.1885717826        0.3135539720        8.4721839923
  O        13.7185934156        2.1883908126       24.6035227190
  H        13.7862570619        2.1940927017       25.5839008574
  H        12.8550531058        2.4956700420       24.3435065986
  O         7.1903169403        1.1814475550        9.7061985537
  H         6.4046204459        0.6990268978       10.1807552111
  H         6.8388500736        1.6130011023        8.9257430880
  O         6.6025372734       11.6231384474       21.4604534076
  H         5.9220831004       12.2334581510       21.8358519235
  H         7.4941010199       11.9871349954       21.6041599080
  O        13.2690616145       11.1999012280       10.7036639200
  H        12.4921336454       11.6274233273       10.3462329769
  H        14.0810928296       11.6892346101       10.4750942268
  O         1.3959700974        7.7128255945        8.0307935815
  H         1.7224415240        7.6832953390        9.0043895703
  H         0.4591988252        8.0467833374        7.9777804811
  O        14.4136128340       12.1265356817       24.7703098084
  H        13.9206533779       12.9250879322       24.5143495330
  H        13.8534388252       11.4088985644       24.4366493499
  O         2.5313683727       11.4386950985       24.3451235398
  H         2.5846614900       10.4525675573       24.3323992206
  H         1.6333826004       11.6900272128       24.5490823078
  O        10.1962954762        2.6589119029        7.3137803857
  H         9.3909128720        3.1735775827        7.3920208045
  H        10.0345539968        2.0527815782        6.5553601099
  O         8.4368949024        8.0096807543       21.5274688709
  H         8.7531192581        7.2809521990       22.0817127059
  H         7.4490412120        8.1086113098       21.6876114692
  O         4.2328653058        7.7009493511       20.2752119047
  H         4.8035477601        7.2979924246       19.6085013371
  H         3.7454022802        6.9920378765       20.7434856427
  O        13.2380355339        9.2843784218        8.5526368992
  H        12.2920795393        8.9405125789        8.4407031080
  H        13.1596848695       10.1032235435        9.1122538201
  O        10.8173097987        9.9569083170       22.3398246570
  H        10.0222052873        9.4670654370       22.2513417425
  H        10.7126840656       10.6181168699       21.6415993121
  O         5.3432737881       11.6719482986       18.7573246120
  H         5.9994539426       11.6700577429       19.4645126407
  H         4.6506077710       11.1041045504       19.1496681955
  O         6.3646620005        1.0080726349       17.4214313745
  H         6.0305053403        0.1058491854       17.7921145516
  H         5.6625332287        1.6003539742       17.8125704706
  O         1.3636459027        5.1053189957       16.5115070209
  H         0.4243295025        5.3450142928       16.2325867203
  H         1.3787550619        4.1193388941       16.3032113725
  O        11.4568406633       11.5994769061        5.9283816859
  H        10.9221733168       12.3301405525        5.5085353901
  H        10.7843643175       10.9064787466        6.1580442518
  O        13.4406414346        4.8073558254       16.3283611301
  H        12.7265633161        5.4541964322       16.1784243552
  H        13.1206330277        3.9052322843       16.0816606353
  O        11.2092956048        2.8349761032       18.9799430350
  H        10.3128621027        2.3989006696       19.0070773677
  H        11.7396392364        2.4161083968       18.1893161603
  O         2.6834126429        8.0003626136       10.5809277731
  H         2.0986778676        7.4679074359       11.2421233763
  H         2.7789516783        8.8750063699       11.0250450617
  O         6.2154478586        7.2663250991       18.3199866741
  H         7.1125138052        7.6109265978       18.6045721560
  H         5.8846156044        7.7508720585       17.5011108039
  O         3.9851808993        1.7864968805       11.6763918227
  H         3.2585134496        1.8800237431       11.1217908165
  H         3.5843527749        1.7844152386       12.6000207866
  O        14.0219693397        1.2017597750        7.9315896656
  H        13.4501497450        1.5268485370        8.6508169617
  H        13.5238046511        0.5387022017        7.4208143389
  O        12.4599086105        4.0906290272        6.6119856388
  H        11.6789367260        3.5556605776        6.9951788097
  H        12.5343895876        3.7199196177        5.7409326828
  O        11.5388892213        6.9286070900       16.0369630082
  H        11.9745233824        7.6733457537       15.6045898953
  H        11.1099235634        6.6413919132       15.2341279369
  O         8.1546652583        2.5635441285       18.6326538110
  H         7.5036956678        1.8071454102       18.2329590408
  H         7.9481943969        2.5882381537       19.5833713960
  O         5.4819899821        3.2446015449        4.5414648633
  H         5.0369101571        3.7839891751        5.1947119527
  H         4.7505661143        2.8852721812        3.9292461954
  O         8.1204217535        3.4115911395        4.3123666822
  H         8.6712590068        4.0628637476        3.8665942045
  H         7.1802200788        3.5363754494        4.1192092531
  O         8.7983739301        2.4676848519       11.2662861218
  H         8.1443786193        2.0841280947       10.6512990637
  H         8.3566835166        2.5370340143       12.2480353658
  O         7.0309654823        9.5935610220        9.4519681083
  H         6.8780981960       10.0537506541        8.6401818949
  H         7.0550197594        8.6359978772        9.0525707685
  O        12.2205638098        4.6596424761        2.6789673274
  H        12.8089498234        5.0478776698        3.2940450809
  H        12.0412235560        3.7383044715        3.0505310577
  O        10.7522165894       10.7223550559       18.5783247323
  H        10.7725897125       10.9201125204       17.6372363425
  H         9.9921839664       10.1434944257       18.5557523725
  O         9.9185957415        5.8369279352        3.5686581743
  H        10.6642150881        5.8212912436        2.9096034869
  H         9.2940265360        6.4707900202        3.0937148600
  O         3.1782974311       10.2481738373       19.5474135144
  H         3.3446528953        9.3426104453       19.8052804454
  H         2.9754576903       10.8003756441       20.3926902898
  O         1.4181725426        5.6590830650        6.3196351615
  H         1.4387710071        6.4242679026        6.9738201001
  H         1.0482219631        4.9131567419        6.8568680810
  O         9.7827598376       11.6536006544        2.8584669459
  H        10.5098425592       11.0603692333        3.0616361469
  H         9.6616633220       11.5421434249        1.9082988686
  O         5.8173334637        8.9310237586       21.9541254946
  H         5.9386720835        9.8860923778       21.7058251540
  H         5.1024819969        8.5382815186       21.3738525175
  O        10.6571109704        8.3859645810        8.3370552873
  H        10.4482242584        7.6885852432        7.6456713071
  H        10.4617703118        7.8453903497        9.1630053085
  O         7.7545373016        8.0658968970       14.7441334068
  H         8.0836043570        7.2499274277       14.3746412856
  H         6.8014066907        7.9624546516       15.0046205883
  O         1.2982164299       11.1841163077        2.3415615476
  H         0.6826666722       11.7503746041        2.8128217895
  H         2.1873939469       11.4555650975        2.6697902200
  O         4.4079232406        2.9612831447       18.0185647328
  H         3.8286863054        3.1149180705       18.7907264489
  H         5.1649942231        3.6789798873       18.0807593951
  O         7.8515917498        9.9396406625        4.1368335906
  H         8.5891928752       10.5003106835        3.7480891951
  H         8.0762804934        9.9147007019        5.0641173896
  O        14.2643414599        4.6787957300        8.7674780576
  H        14.0905748051        5.6200497791        9.0848374747
  H        13.7982134536        4.5338250132        7.9429551060
  O         8.0670311661        7.4643441348        2.5437307143
  H         8.1274952351        8.3680388865        2.8628772946
  H         7.1493346440        7.3826417373        2.5186670989
  O        10.9514008493        2.2455209560       23.7048697550
  H        10.4096119143        1.6258740294       24.2176847906
  H        10.1489899922        2.6990451758       23.4444112200
  O         3.6678948554       12.4230102150        3.1806716546
  H         4.4229796970       11.7713972984        2.9725707999
  H         3.6153157537       12.4602699737        4.1839886315
  O         6.7472479135        7.1691361852        8.1126176904
  H         7.3400400790        6.4331428156        8.0449315860
  H         6.3011321626        7.2799027348        7.2285468365
  O         1.3982352568        1.6703932022        6.4297032353
  H         1.3761052467        2.3992799598        5.8225075831
  H         0.6571798034        1.6212530018        7.1107573600
  O        13.9282316328        0.1371013499       14.7525629229
  H        13.3147401602       -0.5463053349       14.3021166047
  H        14.5490343920        0.5312486388       14.0640476684
  O         3.5655607043        6.2093257472       15.6071820513
  H         2.7648375020        5.6469956722       15.7693203860
  H         4.1460639581        5.7160916549       14.9811773773
  O        14.3222278359        7.6086607360       19.8333987944
  H        14.9262023277        7.9407167762       20.5233823434
  H        13.3480456186        7.6460060352       20.1593543887
  O        10.9442187909       12.5798092498       20.4883763124
  H        11.7341153004       13.1937479558       20.4018777357
  H        10.8423763239       11.9382432308       19.7457579713
  O         6.5700939968        4.4773158250       17.6351897234
  H         7.3577496927        4.0914486603       18.1007862017
  H         6.5888495453        5.4961061822       17.7697822178
  O         0.8668816695        8.2532544894       23.9477633703
  H        -0.0442179541        8.7287383093       24.1485964028
  H         0.5147573899        7.2979026454       23.9026187825
  O        14.5894235328       12.4711846077        5.4896063962
  H        14.9671993274       11.5755935536        5.5511797827
  H        15.3340502917       13.0829548733        5.7561119625
  O        12.6309595846        1.7364841211       21.1306816279
  H        12.3055683752        2.3553845072       20.4652185377
  H        12.0084496343        1.8343560061       21.9325683434
  O         3.0279068862        0.1148397028        8.4701383178
  H         3.1071831187        1.0655017558        8.2344623037
  H         3.6966018176       -0.0331134770        9.1466231156
  O         0.6714741868        1.3295004933       18.2173757844
  H         0.7490986277        0.3180077890       18.1959148578
  H         0.2172310029        1.4129619964       19.1053372932
  O         4.0188633345        1.5937871797       24.3595351154
  H         3.2277639509        2.1631953121       24.3116877979
  H         3.7686996644        0.6458603634       24.3204680998
  O        11.7445008832        2.2517451707        3.7654631939
  H        10.9626429337        1.8535012593        4.1196267004
  H        12.5335899969        1.6009695851        3.7428582581
  O         8.1121634772       10.3895714285       13.2494031379
  H         8.7770490177        9.9939554621       12.6372724405
  H         8.0029174566        9.5722988397       13.9655058589
  O         3.1766387508        5.3092015598        2.8652492033
  H         2.2536603932        4.9980872011        3.0275078465
  H         3.6853337964        4.4750626061        2.9313120804
  O         5.2905366921        5.1783066921       23.3313713303
  H         5.6864568122        5.9967112579       23.6113454444
  H         5.4967359506        4.8071965636       24.2230010856
  O         4.3889359863       12.1983008384        5.9480565533
  H         3.8162540871       12.3881845023        6.6998056146
  H         5.0955694645       12.8038179516        6.1924136984
  O         1.1499637954        6.3713139509       11.8913273689
  H         1.1785189936        6.7599774712       12.8052290814
  H         1.5933447489        5.4715176636       11.7366858270
  C        -0.0394413070       -0.9018035327       -0.2030961229
  C         1.1493856045        1.2656287978       -0.1552181698
  C         1.1672273908       -0.1436143486       -0.1520836703
  C        -0.0905227525        1.9809123297       -0.1304122051
  C         2.3827204248       -0.8757830562       -0.1957599990
  C         3.5812511111        1.2766992024       -0.1327882593
  C         3.6840169679       -0.1960600099       -0.1192833371
  C         2.3860264441        1.9126377622       -0.0866559539
  C         4.9065144739       -0.9744336068       -0.1122441969
  C         6.1584398509        1.2743777434       -0.1149731956
  C         6.1367579344       -0.2024359375       -0.1223633856
  C         4.9093174778        1.9597068781       -0.0695813542
  C         7.3244065966       -0.8225910771       -0.2867567706
  C         8.5843517878        1.2761208852       -0.3300100625
  C         8.5775477353       -0.1240025412       -0.3263310344
  C         7.3412090828        1.9826241207       -0.1151349394
  C         9.7632467353       -0.8768897145       -0.3966365120
  C        11.0537209704        1.2872538164       -0.1981892406
  C        10.9520649073       -0.1923723876       -0.2065529160
  C         9.8026097424        1.9456582574       -0.2323369511
  C        12.2242731893       -0.8455180055       -0.2186278204
  C        13.4847858516        1.3109832199       -0.1588558048
  C        13.5138292382       -0.1910281080       -0.2208117304
  C        12.2826939990        2.0347498220       -0.1836035248
  C        -0.0774879335        3.4003536803       -0.1916626294
  C         1.1651734143        5.4535875137       -0.3632599870
  C         1.1716820007        4.0815157461       -0.1762801509
  C        -0.0476795819        6.2512897142       -0.3008556772
  C         2.3688846325        3.4161400863       -0.1420102457
  C         3.6600923103        5.4713058352       -0.3530475641
  C         3.6120164783        4.0341777784       -0.2430336518
  C         2.4223924559        6.2002658772       -0.3893008517
  C         4.8911250660        3.3425320435       -0.1636917448
  C         6.1691264027        5.5236302113       -0.2429296905
  C         6.0792075397        4.1221975802       -0.1500831996
  C         4.8924440019        6.2193023938       -0.2872430065
  C         7.3469549673        3.3871562332       -0.1039400669
  C         8.5963122762        5.5189311374       -0.1254151910
  C         8.5880539789        4.1165999192       -0.0333328498
  C         7.3935217503        6.2230599027       -0.2087565701
  C         9.8781651403        3.3778001765       -0.1085095700
  C        11.0391922576        5.5280277305       -0.0472251144
  C        11.0191124504        4.1153471617       -0.0922877789
  C         9.7915557906        6.2312266461       -0.2278759644
  C        12.2965955291        3.4346772915       -0.1535762779
  C        13.5263967988        5.5512523733       -0.1905672610
  C        13.5235706257        4.1558297023       -0.1290540948
  C        12.2617008561        6.1865793145        0.0075471942
  C        -0.0375707018        7.6354064477       -0.3597000181
  C         1.1853897719        9.7860833210       -0.4787676536
  C         1.1812777794        8.3736778254       -0.4481231348
  C        -0.0173331601       10.4627038244       -0.3198470069
  C         2.4333407773        7.6429880872       -0.4746139319
  C         3.6098321564        9.8242357441       -0.3568432137
  C         3.5928202109        8.3392813961       -0.3628398133
  C         2.4586952371       10.4707375381       -0.2278782243
  C         4.8771569073        7.6571702625       -0.3878362258
  C         6.1171320953        9.7896065853       -0.2550608734
  C         6.0534164750        8.4152160634       -0.3315973972
  C         4.8830562799       10.4451482168       -0.1591083024
  C         7.3344592612        7.6821721175       -0.2754479748
  C         8.5445268362        9.7840471055       -0.4600468245
  C         8.5829483137        8.3660949095       -0.3725427119
  C         7.3440944586       10.5008402129       -0.2807714958
  C         9.7820156762        7.6786770307       -0.2779827073
  C        11.0248350515        9.7917831953       -0.3762670800
  C        11.0429722850        8.3229830816       -0.3355864818
  C         9.7755300065       10.4929108305       -0.3751156555
  C        12.2696250073        7.6536686542       -0.1046245184
  C        13.4708659468        9.7494954214       -0.3081939820
  C        13.4346162382        8.3372603023       -0.2677484039
  C        12.2255833376       10.5095709654       -0.2825487959